15

N         -3.63714        2.89769       -0.17541
C         -2.36234        2.18473       -0.25324
C         -2.35058        1.04066        0.71967
O         -3.14962        0.12379        0.60092
H         -4.43768        2.22590       -0.21577
H         -2.22861        1.77223       -1.27870
C         -1.24142        3.19687        0.02687
C          0.17841        2.62161        0.04964
N          1.10604        3.71719        0.14392
N          2.31911        3.53760        0.13118
N          3.51574        3.36127        0.11748
H         -1.42554        3.70332        1.00036
H         -1.29034        3.96266       -0.77977
H          0.37471        2.04500       -0.88320
H          0.30485        1.94384        0.92551
